<?xml version="1.0" encoding="UTF-8"?>

<!-- generated on 2022-11-01 00:51:41 by Eclipse SUMO netedit Version 1.10.0
<configuration xmlns:xsi="http://www.w3.org/2001/XMLSchema-instance" xsi:noNamespaceSchemaLocation="http://sumo.dlr.de/xsd/netconvertConfiguration.xsd">

    <input>
        <sumo-net-file value="/root/SMARTS-comp-1/smarts/scenarios/my_scenarios/丁字路口/1_to_3lane_left_turn_mid_t/map.net.xml"/>
    </input>

    <output>
        <output-file value="/root/SMARTS-comp-1/smarts/scenarios/my_scenarios/丁字路口/1_to_3lane_left_turn_mid_t/map.net.xml"/>
    </output>

    <processing>
        <geometry.min-radius.fix.railways value="false"/>
        <geometry.max-grade.fix value="false"/>
        <offset.disable-normalization value="true"/>
        <lefthand value="false"/>
    </processing>

    <junctions>
        <no-turnarounds value="true"/>
        <junctions.corner-detail value="5"/>
        <junctions.limit-turn-speed value="5.5"/>
        <rectangular-lane-cut value="false"/>
    </junctions>

    <pedestrian>
        <walkingareas value="false"/>
    </pedestrian>

    <report>
        <aggregate-warnings value="5"/>
    </report>

</configuration>
-->

<net version="1.9" junctionCornerDetail="5" limitTurnSpeed="5.50" xmlns:xsi="http://www.w3.org/2001/XMLSchema-instance" xsi:noNamespaceSchemaLocation="http://sumo.dlr.de/xsd/net_file.xsd">

    <location netOffset="0.00,0.00" convBoundary="-50.46,60.00,50.00,104.80" origBoundary="-10000000000.00,-10000000000.00,10000000000.00,10000000000.00" projParameter="!"/>

    <edge id=":J1_0" function="internal">
        <lane id=":J1_0_0" index="0" speed="13.89" length="14.41" shape="7.20,108.00 -7.21,108.00"/>
        <lane id=":J1_0_1" index="1" speed="13.89" length="14.41" shape="7.20,104.80 -7.21,104.80"/>
        <lane id=":J1_0_2" index="2" speed="13.89" length="14.41" shape="7.20,101.60 -7.20,101.60"/>
    </edge>
    <edge id=":J1_3" function="internal">
        <lane id=":J1_3_0" index="0" speed="9.32" length="4.87" shape="7.20,101.60 3.35,100.65 2.72,100.00"/>
    </edge>
    <edge id=":J1_11" function="internal">
        <lane id=":J1_11_0" index="0" speed="9.32" length="14.76" shape="2.72,100.00 0.60,97.80 -1.05,93.05 -1.60,86.40"/>
    </edge>
    <edge id=":J1_4" function="internal">
        <lane id=":J1_4_0" index="0" speed="6.51" length="9.03" shape="1.60,86.40 1.95,88.85 3.00,90.60 4.75,91.65 7.20,92.00"/>
    </edge>
    <edge id=":J1_5" function="internal">
        <lane id=":J1_5_0" index="0" speed="9.94" length="22.48" shape="1.60,86.40 1.05,94.45 -0.60,100.20 -3.35,103.65 -7.21,104.80"/>
        <lane id=":J1_5_1" index="1" speed="9.32" length="19.63" shape="1.60,86.40 1.05,93.05 -0.60,97.80 -3.35,100.65 -7.20,101.60"/>
    </edge>
    <edge id=":J1_7" function="internal">
        <lane id=":J1_7_0" index="0" speed="6.51" length="9.03" shape="-7.20,92.00 -4.75,91.65 -3.00,90.60 -1.95,88.85 -1.60,86.40"/>
    </edge>
    <edge id=":J1_8" function="internal">
        <lane id=":J1_8_0" index="0" speed="13.89" length="14.40" shape="-7.20,92.00 7.20,92.00"/>
        <lane id=":J1_8_1" index="1" speed="13.89" length="14.40" shape="-7.20,95.20 7.20,95.20"/>
        <lane id=":J1_8_2" index="2" speed="13.89" length="14.40" shape="-7.20,98.40 7.20,98.40"/>
    </edge>

    <edge id="-E0" from="J1" to="J0" priority="-1">
        <lane id="-E0_0" index="0" speed="13.89" length="26.40" shape="-1.60,86.40 -1.60,60.00"/>
    </edge>
    <edge id="-E1" from="J2" to="J1" priority="-1">
        <lane id="-E1_0" index="0" speed="13.89" length="42.80" shape="-50.00,92.00 -7.20,92.00"/>
        <lane id="-E1_1" index="1" speed="13.89" length="42.80" shape="-50.00,95.20 -7.20,95.20"/>
        <lane id="-E1_2" index="2" speed="13.89" length="42.80" shape="-50.00,98.40 -7.20,98.40"/>
    </edge>
    <edge id="-E4" from="J1" to="J5" priority="-1">
        <lane id="-E4_0" index="0" speed="13.89" length="42.80" shape="7.20,92.00 50.00,92.00"/>
        <lane id="-E4_1" index="1" speed="13.89" length="42.80" shape="7.20,95.20 50.00,95.20"/>
        <lane id="-E4_2" index="2" speed="13.89" length="42.80" shape="7.20,98.40 50.00,98.40"/>
    </edge>
    <edge id="E0" from="J0" to="J1" priority="-1">
        <lane id="E0_0" index="0" speed="13.89" length="26.40" shape="1.60,60.00 1.60,86.40"/>
    </edge>
    <edge id="E1" from="J1" to="J2" priority="-1" spreadType="center" shape="-0.00,104.80 -50.46,104.78">
        <lane id="E1_0" index="0" speed="13.89" length="42.80" shape="-7.21,108.00 -50.00,107.98"/>
        <lane id="E1_1" index="1" speed="13.89" length="42.80" shape="-7.21,104.80 -50.00,104.78"/>
        <lane id="E1_2" index="2" speed="13.89" length="42.80" shape="-7.20,101.60 -50.00,101.58"/>
    </edge>
    <edge id="E4" from="J5" to="J1" priority="-1">
        <lane id="E4_0" index="0" speed="13.89" length="42.80" shape="50.00,108.00 7.20,108.00"/>
        <lane id="E4_1" index="1" speed="13.89" length="42.80" shape="50.00,104.80 7.20,104.80"/>
        <lane id="E4_2" index="2" speed="13.89" length="42.80" shape="50.00,101.60 7.20,101.60"/>
    </edge>

    <junction id="J0" type="dead_end" x="0.00" y="60.00" incLanes="-E0_0" intLanes="" shape="0.00,60.00 -3.20,60.00 0.00,60.00"/>
    <junction id="J1" type="priority" x="0.00" y="100.00" incLanes="E4_0 E4_1 E4_2 E0_0 -E1_0 -E1_1 -E1_2" intLanes=":J1_0_0 :J1_0_1 :J1_0_2 :J1_11_0 :J1_4_0 :J1_5_0 :J1_5_1 :J1_7_0 :J1_8_0 :J1_8_1 :J1_8_2" shape="7.20,109.60 7.20,90.40 4.98,89.96 4.20,89.40 3.64,88.62 3.31,87.62 3.20,86.40 -3.20,86.40 -3.64,88.62 -4.20,89.40 -4.98,89.96 -5.98,90.29 -7.20,90.40 -7.21,109.60">
        <request index="0"  response="00000000000" foes="00001100000" cont="0"/>
        <request index="1"  response="00000000000" foes="00001100000" cont="0"/>
        <request index="2"  response="00000000000" foes="00001100000" cont="0"/>
        <request index="3"  response="11110000000" foes="11111100000" cont="1"/>
        <request index="4"  response="11100000000" foes="11100000000" cont="0"/>
        <request index="5"  response="11100001111" foes="11100001111" cont="0"/>
        <request index="6"  response="11100001111" foes="11100001111" cont="0"/>
        <request index="7"  response="00000000000" foes="00000001000" cont="0"/>
        <request index="8"  response="00000000000" foes="00001111000" cont="0"/>
        <request index="9"  response="00000000000" foes="00001111000" cont="0"/>
        <request index="10" response="00000000000" foes="00001111000" cont="0"/>
    </junction>
    <junction id="J2" type="dead_end" x="-50.00" y="100.00" incLanes="E1_0 E1_1 E1_2" intLanes="" shape="-50.00,100.00 -50.00,90.40 -50.00,109.58"/>
    <junction id="J5" type="dead_end" x="50.00" y="100.00" incLanes="-E4_0 -E4_1 -E4_2" intLanes="" shape="50.00,100.00 50.00,90.40 50.00,100.00"/>

    <junction id=":J1_11_0" type="internal" x="2.72" y="100.00" incLanes=":J1_3_0 -E1_0 -E1_1 -E1_2" intLanes=":J1_5_0 :J1_5_1 :J1_7_0 :J1_8_0 :J1_8_1 :J1_8_2"/>

    <connection from="-E1" to="-E0" fromLane="0" toLane="0" via=":J1_7_0" dir="r" state="M"/>
    <connection from="-E1" to="-E4" fromLane="0" toLane="0" via=":J1_8_0" dir="s" state="M"/>
    <connection from="-E1" to="-E4" fromLane="1" toLane="1" via=":J1_8_1" dir="s" state="M"/>
    <connection from="-E1" to="-E4" fromLane="2" toLane="2" via=":J1_8_2" dir="s" state="M"/>
    <connection from="E0" to="-E4" fromLane="0" toLane="0" via=":J1_4_0" dir="r" state="m"/>
    <connection from="E0" to="E1" fromLane="0" toLane="1" via=":J1_5_0" dir="l" state="m"/>
    <connection from="E0" to="E1" fromLane="0" toLane="2" via=":J1_5_1" dir="l" state="m"/>
    <connection from="E4" to="E1" fromLane="0" toLane="0" via=":J1_0_0" dir="s" state="M"/>
    <connection from="E4" to="E1" fromLane="1" toLane="1" via=":J1_0_1" dir="s" state="M"/>
    <connection from="E4" to="E1" fromLane="2" toLane="2" via=":J1_0_2" dir="s" state="M"/>
    <connection from="E4" to="-E0" fromLane="2" toLane="0" via=":J1_3_0" dir="l" state="m"/>

    <connection from=":J1_0" to="E1" fromLane="0" toLane="0" dir="s" state="M"/>
    <connection from=":J1_0" to="E1" fromLane="1" toLane="1" dir="s" state="M"/>
    <connection from=":J1_0" to="E1" fromLane="2" toLane="2" dir="s" state="M"/>
    <connection from=":J1_3" to="-E0" fromLane="0" toLane="0" via=":J1_11_0" dir="l" state="m"/>
    <connection from=":J1_11" to="-E0" fromLane="0" toLane="0" dir="l" state="M"/>
    <connection from=":J1_4" to="-E4" fromLane="0" toLane="0" dir="r" state="M"/>
    <connection from=":J1_5" to="E1" fromLane="0" toLane="1" dir="l" state="M"/>
    <connection from=":J1_5" to="E1" fromLane="1" toLane="2" dir="l" state="M"/>
    <connection from=":J1_7" to="-E0" fromLane="0" toLane="0" dir="r" state="M"/>
    <connection from=":J1_8" to="-E4" fromLane="0" toLane="0" dir="s" state="M"/>
    <connection from=":J1_8" to="-E4" fromLane="1" toLane="1" dir="s" state="M"/>
    <connection from=":J1_8" to="-E4" fromLane="2" toLane="2" dir="s" state="M"/>

</net>
