<?xml version="1.0" encoding="UTF-8"?>

<!-- generated on 2022-11-01 00:51:02 by Eclipse SUMO netedit Version 1.10.0
<configuration xmlns:xsi="http://www.w3.org/2001/XMLSchema-instance" xsi:noNamespaceSchemaLocation="http://sumo.dlr.de/xsd/netconvertConfiguration.xsd">

    <input>
        <sumo-net-file value="/root/SMARTS-comp-1/smarts/scenarios/my_scenarios/十字路口/1_to_2lane_right_turn_c/map.net.xml"/>
    </input>

    <output>
        <output-file value="/root/SMARTS-comp-1/smarts/scenarios/my_scenarios/十字路口/1_to_2lane_right_turn_c/map.net.xml"/>
    </output>

    <processing>
        <geometry.min-radius.fix.railways value="false"/>
        <geometry.max-grade.fix value="false"/>
        <offset.disable-normalization value="true"/>
        <lefthand value="false"/>
    </processing>

    <junctions>
        <no-turnarounds value="true"/>
        <junctions.corner-detail value="5"/>
        <junctions.limit-turn-speed value="5.5"/>
        <rectangular-lane-cut value="false"/>
    </junctions>

    <pedestrian>
        <walkingareas value="false"/>
    </pedestrian>

    <report>
        <aggregate-warnings value="5"/>
    </report>

</configuration>
-->

<net version="1.9" junctionCornerDetail="5" limitTurnSpeed="5.50" xmlns:xsi="http://www.w3.org/2001/XMLSchema-instance" xsi:noNamespaceSchemaLocation="http://sumo.dlr.de/xsd/net_file.xsd">

    <location netOffset="0.00,0.00" convBoundary="-50.00,60.00,50.00,140.00" origBoundary="-10000000000.00,-10000000000.00,10000000000.00,10000000000.00" projParameter="!"/>

    <edge id=":J1_0" function="internal">
        <lane id=":J1_0_0" index="0" speed="6.51" length="9.03" shape="-1.60,113.60 -1.95,111.15 -3.00,109.40 -4.75,108.35 -7.20,108.00"/>
    </edge>
    <edge id=":J1_1" function="internal">
        <lane id=":J1_1_0" index="0" speed="13.89" length="27.20" shape="-1.60,113.60 -1.60,86.40"/>
    </edge>
    <edge id=":J1_2" function="internal">
        <lane id=":J1_2_0" index="0" speed="9.32" length="19.63" shape="-1.60,113.60 -1.05,106.95 0.60,102.20 3.35,99.35 7.20,98.40"/>
    </edge>
    <edge id=":J1_3" function="internal">
        <lane id=":J1_3_0" index="0" speed="6.51" length="9.03" shape="7.20,108.00 4.75,108.35 3.00,109.40 1.95,111.15 1.60,113.60"/>
    </edge>
    <edge id=":J1_4" function="internal">
        <lane id=":J1_4_0" index="0" speed="13.89" length="14.40" shape="7.20,108.00 -7.20,108.00"/>
        <lane id=":J1_4_1" index="1" speed="13.89" length="14.40" shape="7.20,104.80 -7.20,104.80"/>
        <lane id=":J1_4_2" index="2" speed="13.89" length="14.40" shape="7.20,101.60 -7.20,101.60"/>
    </edge>
    <edge id=":J1_7" function="internal">
        <lane id=":J1_7_0" index="0" speed="9.32" length="4.87" shape="7.20,101.60 3.35,100.65 2.72,100.00"/>
    </edge>
    <edge id=":J1_16" function="internal">
        <lane id=":J1_16_0" index="0" speed="9.32" length="14.76" shape="2.72,100.00 0.60,97.80 -1.05,93.05 -1.60,86.40"/>
    </edge>
    <edge id=":J1_8" function="internal">
        <lane id=":J1_8_0" index="0" speed="6.51" length="9.03" shape="1.60,86.40 1.95,88.85 3.00,90.60 4.75,91.65 7.20,92.00"/>
    </edge>
    <edge id=":J1_9" function="internal">
        <lane id=":J1_9_0" index="0" speed="13.89" length="27.20" shape="1.60,86.40 1.60,113.60"/>
    </edge>
    <edge id=":J1_10" function="internal">
        <lane id=":J1_10_0" index="0" speed="9.32" length="19.63" shape="1.60,86.40 1.05,93.05 -0.60,97.80 -3.35,100.65 -7.20,101.60"/>
    </edge>
    <edge id=":J1_11" function="internal">
        <lane id=":J1_11_0" index="0" speed="6.51" length="9.03" shape="-7.20,92.00 -4.75,91.65 -3.00,90.60 -1.95,88.85 -1.60,86.40"/>
    </edge>
    <edge id=":J1_12" function="internal">
        <lane id=":J1_12_0" index="0" speed="13.89" length="14.40" shape="-7.20,92.00 7.20,92.00"/>
        <lane id=":J1_12_1" index="1" speed="13.89" length="14.40" shape="-7.20,95.20 7.20,95.20"/>
        <lane id=":J1_12_2" index="2" speed="13.89" length="14.40" shape="-7.20,98.40 7.20,98.40"/>
    </edge>
    <edge id=":J1_15" function="internal">
        <lane id=":J1_15_0" index="0" speed="9.32" length="4.87" shape="-7.20,98.40 -3.35,99.35 -2.72,100.00"/>
    </edge>
    <edge id=":J1_17" function="internal">
        <lane id=":J1_17_0" index="0" speed="9.32" length="14.76" shape="-2.72,100.00 -0.60,102.20 1.05,106.95 1.60,113.60"/>
    </edge>

    <edge id="-E0" from="J1" to="J0" priority="-1">
        <lane id="-E0_0" index="0" speed="13.89" length="26.40" shape="-1.60,86.40 -1.60,60.00"/>
    </edge>
    <edge id="-E1" from="J2" to="J1" priority="-1">
        <lane id="-E1_0" index="0" speed="13.89" length="42.80" shape="-50.00,92.00 -7.20,92.00"/>
        <lane id="-E1_1" index="1" speed="13.89" length="42.80" shape="-50.00,95.20 -7.20,95.20"/>
        <lane id="-E1_2" index="2" speed="13.89" length="42.80" shape="-50.00,98.40 -7.20,98.40"/>
    </edge>
    <edge id="-E3" from="J4" to="J1" priority="-1">
        <lane id="-E3_0" index="0" speed="13.89" length="26.40" shape="-1.60,140.00 -1.60,113.60"/>
    </edge>
    <edge id="-E4" from="J1" to="J5" priority="-1">
        <lane id="-E4_0" index="0" speed="13.89" length="42.80" shape="7.20,92.00 50.00,92.00"/>
        <lane id="-E4_1" index="1" speed="13.89" length="42.80" shape="7.20,95.20 50.00,95.20"/>
        <lane id="-E4_2" index="2" speed="13.89" length="42.80" shape="7.20,98.40 50.00,98.40"/>
    </edge>
    <edge id="E0" from="J0" to="J1" priority="-1">
        <lane id="E0_0" index="0" speed="13.89" length="26.40" shape="1.60,60.00 1.60,86.40"/>
    </edge>
    <edge id="E1" from="J1" to="J2" priority="-1">
        <lane id="E1_0" index="0" speed="13.89" length="42.80" shape="-7.20,108.00 -50.00,108.00"/>
        <lane id="E1_1" index="1" speed="13.89" length="42.80" shape="-7.20,104.80 -50.00,104.80"/>
        <lane id="E1_2" index="2" speed="13.89" length="42.80" shape="-7.20,101.60 -50.00,101.60"/>
    </edge>
    <edge id="E3" from="J1" to="J4" priority="-1">
        <lane id="E3_0" index="0" speed="13.89" length="26.40" shape="1.60,113.60 1.60,140.00"/>
    </edge>
    <edge id="E4" from="J5" to="J1" priority="-1">
        <lane id="E4_0" index="0" speed="13.89" length="42.80" shape="50.00,108.00 7.20,108.00"/>
        <lane id="E4_1" index="1" speed="13.89" length="42.80" shape="50.00,104.80 7.20,104.80"/>
        <lane id="E4_2" index="2" speed="13.89" length="42.80" shape="50.00,101.60 7.20,101.60"/>
    </edge>

    <junction id="J0" type="dead_end" x="0.00" y="60.00" incLanes="-E0_0" intLanes="" shape="0.00,60.00 -3.20,60.00 0.00,60.00"/>
    <junction id="J1" type="priority" x="0.00" y="100.00" incLanes="-E3_0 E4_0 E4_1 E4_2 E0_0 -E1_0 -E1_1 -E1_2" intLanes=":J1_0_0 :J1_1_0 :J1_2_0 :J1_3_0 :J1_4_0 :J1_4_1 :J1_4_2 :J1_16_0 :J1_8_0 :J1_9_0 :J1_10_0 :J1_11_0 :J1_12_0 :J1_12_1 :J1_12_2 :J1_17_0" shape="-3.20,113.60 3.20,113.60 3.64,111.38 4.20,110.60 4.98,110.04 5.98,109.71 7.20,109.60 7.20,90.40 4.98,89.96 4.20,89.40 3.64,88.62 3.31,87.62 3.20,86.40 -3.20,86.40 -3.64,88.62 -4.20,89.40 -4.98,89.96 -5.98,90.29 -7.20,90.40 -7.20,109.60 -4.98,110.04 -4.20,110.60 -3.64,111.38 -3.31,112.38">
        <request index="0"  response="0000000001110000" foes="0000000001110000" cont="0"/>
        <request index="1"  response="1111100011110000" foes="1111110011110000" cont="0"/>
        <request index="2"  response="1111001011110000" foes="1111001011110000" cont="0"/>
        <request index="3"  response="0000000000000000" foes="1000001000000000" cont="0"/>
        <request index="4"  response="0000000000000000" foes="1000011000000111" cont="0"/>
        <request index="5"  response="0000000000000000" foes="1000011000000111" cont="0"/>
        <request index="6"  response="0000000000000000" foes="1000011000000111" cont="0"/>
        <request index="7"  response="0111100000000000" foes="0111111000000110" cont="1"/>
        <request index="8"  response="0111000000000000" foes="0111000000000000" cont="0"/>
        <request index="9"  response="1111000011111000" foes="1111000011111100" cont="0"/>
        <request index="10" response="1111000011110010" foes="1111000011110010" cont="0"/>
        <request index="11" response="0000000000000000" foes="0000000010000010" cont="0"/>
        <request index="12" response="0000000000000000" foes="0000011110000110" cont="0"/>
        <request index="13" response="0000000000000000" foes="0000011110000110" cont="0"/>
        <request index="14" response="0000000000000000" foes="0000011110000110" cont="0"/>
        <request index="15" response="0000000001111000" foes="0000011001111110" cont="1"/>
    </junction>
    <junction id="J2" type="dead_end" x="-50.00" y="100.00" incLanes="E1_0 E1_1 E1_2" intLanes="" shape="-50.00,100.00 -50.00,109.60 -50.00,100.00"/>
    <junction id="J4" type="dead_end" x="0.00" y="140.00" incLanes="E3_0" intLanes="" shape="0.00,140.00 3.20,140.00 0.00,140.00"/>
    <junction id="J5" type="dead_end" x="50.00" y="100.00" incLanes="-E4_0 -E4_1 -E4_2" intLanes="" shape="50.00,100.00 50.00,90.40 50.00,100.00"/>

    <junction id=":J1_16_0" type="internal" x="2.72" y="100.00" incLanes=":J1_7_0 -E1_0 -E1_1 -E1_2" intLanes=":J1_1_0 :J1_2_0 :J1_9_0 :J1_10_0 :J1_11_0 :J1_12_0 :J1_12_1 :J1_12_2"/>
    <junction id=":J1_17_0" type="internal" x="-2.72" y="100.00" incLanes=":J1_15_0 E4_0 E4_1 E4_2" intLanes=":J1_1_0 :J1_2_0 :J1_3_0 :J1_4_0 :J1_4_1 :J1_4_2 :J1_9_0 :J1_10_0"/>

    <connection from="-E1" to="-E0" fromLane="0" toLane="0" via=":J1_11_0" dir="r" state="M"/>
    <connection from="-E1" to="-E4" fromLane="0" toLane="0" via=":J1_12_0" dir="s" state="M"/>
    <connection from="-E1" to="-E4" fromLane="1" toLane="1" via=":J1_12_1" dir="s" state="M"/>
    <connection from="-E1" to="-E4" fromLane="2" toLane="2" via=":J1_12_2" dir="s" state="M"/>
    <connection from="-E1" to="E3" fromLane="2" toLane="0" via=":J1_15_0" dir="l" state="m"/>
    <connection from="-E3" to="E1" fromLane="0" toLane="0" via=":J1_0_0" dir="r" state="m"/>
    <connection from="-E3" to="-E0" fromLane="0" toLane="0" via=":J1_1_0" dir="s" state="m"/>
    <connection from="-E3" to="-E4" fromLane="0" toLane="2" via=":J1_2_0" dir="l" state="m"/>
    <connection from="E0" to="-E4" fromLane="0" toLane="0" via=":J1_8_0" dir="r" state="m"/>
    <connection from="E0" to="E3" fromLane="0" toLane="0" via=":J1_9_0" dir="s" state="m"/>
    <connection from="E0" to="E1" fromLane="0" toLane="2" via=":J1_10_0" dir="l" state="m"/>
    <connection from="E4" to="E3" fromLane="0" toLane="0" via=":J1_3_0" dir="r" state="M"/>
    <connection from="E4" to="E1" fromLane="0" toLane="0" via=":J1_4_0" dir="s" state="M"/>
    <connection from="E4" to="E1" fromLane="1" toLane="1" via=":J1_4_1" dir="s" state="M"/>
    <connection from="E4" to="E1" fromLane="2" toLane="2" via=":J1_4_2" dir="s" state="M"/>
    <connection from="E4" to="-E0" fromLane="2" toLane="0" via=":J1_7_0" dir="l" state="m"/>

    <connection from=":J1_0" to="E1" fromLane="0" toLane="0" dir="r" state="M"/>
    <connection from=":J1_1" to="-E0" fromLane="0" toLane="0" dir="s" state="M"/>
    <connection from=":J1_2" to="-E4" fromLane="0" toLane="2" dir="l" state="M"/>
    <connection from=":J1_3" to="E3" fromLane="0" toLane="0" dir="r" state="M"/>
    <connection from=":J1_4" to="E1" fromLane="0" toLane="0" dir="s" state="M"/>
    <connection from=":J1_4" to="E1" fromLane="1" toLane="1" dir="s" state="M"/>
    <connection from=":J1_4" to="E1" fromLane="2" toLane="2" dir="s" state="M"/>
    <connection from=":J1_7" to="-E0" fromLane="0" toLane="0" via=":J1_16_0" dir="l" state="m"/>
    <connection from=":J1_16" to="-E0" fromLane="0" toLane="0" dir="l" state="M"/>
    <connection from=":J1_8" to="-E4" fromLane="0" toLane="0" dir="r" state="M"/>
    <connection from=":J1_9" to="E3" fromLane="0" toLane="0" dir="s" state="M"/>
    <connection from=":J1_10" to="E1" fromLane="0" toLane="2" dir="l" state="M"/>
    <connection from=":J1_11" to="-E0" fromLane="0" toLane="0" dir="r" state="M"/>
    <connection from=":J1_12" to="-E4" fromLane="0" toLane="0" dir="s" state="M"/>
    <connection from=":J1_12" to="-E4" fromLane="1" toLane="1" dir="s" state="M"/>
    <connection from=":J1_12" to="-E4" fromLane="2" toLane="2" dir="s" state="M"/>
    <connection from=":J1_15" to="E3" fromLane="0" toLane="0" via=":J1_17_0" dir="l" state="m"/>
    <connection from=":J1_17" to="E3" fromLane="0" toLane="0" dir="l" state="M"/>

</net>
